Circuit: * C:\users\markd\My Documents\Solar\inverter\Sims\boost.asc

C1: Increased Cpar to 3.3e-009
Direct Newton iteration failed to find .op point.  (Use ".option noopiter" to skip.)
Starting Gmin stepping
Gmin = 10
Gmin = 1.07374
Gmin = 0.115292
Gmin = 0.0123794
Gmin = 0.00132923
Gmin = 0.000142725
Gmin = 1.5325e-005
Gmin = 1.6455e-006
Gmin = 1.76685e-007
Gmin = 1.89714e-008
Gmin = 2.03704e-009
Gmin = 2.18725e-010
Gmin = 2.34854e-011
Gmin = 2.52173e-012
Gmin = 2.70769e-013
Gmin = 0
Gmin stepping succeeded in finding the operating point.


Date: Fri Nov 06 08:54:08 2020
Total elapsed time: 1.697 seconds.

tnom = 27
temp = 27
method = modified trap
totiter = 203248
traniter = 202876
tranpoints = 57894
accept = 41720
rejected = 16174
matrix size = 40
fillins = 4
solver = Normal
Matrix Compiler1: 1.67 KB object code size  0.9/0.3/[0.1]
Matrix Compiler2: 2.64 KB object code size  0.3/0.4/[0.3]

